# rhf/sto-3g  scf=NoMix     ! NoMix 参数含义参见 README

0 1
 C                 -0.50052900    1.29336900   -0.00000100
 C                 -1.37038300    0.21310800    0.00010800
 C                 -0.86983200   -1.08015300   -0.00005400
 C                  0.50063100   -1.29332900    0.00002200
 C                  1.37036500   -0.21321600    0.00005400
 C                  0.86974700    1.08022200   -0.00007600
 H                 -0.89134800    2.30293500   -0.00001100
 H                 -2.44008300    0.37956700   -0.00006800
 H                 -1.54873300   -1.92339700   -0.00017100
 H                  0.89132000   -2.30294500   -0.00009000
 H                  2.44008900   -0.37954200    0.00011900
 H                  1.54876100    1.92337300   -0.00010000



