# rhf/6-31g  scf=NoMix     ! NoMix 参数含义参见 README

0 1
 C                  0.00000000    0.00000000    0.00000000
 H                  0.62475400    0.62475400    0.62475400
 H                 -0.62475400   -0.62475400    0.62475400
 H                 -0.62475400    0.62475400   -0.62475400
 H                  0.62475400   -0.62475400   -0.62475400


